Version 4
SHEET 1 988 680
WIRE 144 -32 0 -32
WIRE 0 64 0 -32
WIRE 144 64 144 -32
WIRE 144 160 144 144
WIRE 224 160 144 160
WIRE 320 160 288 160
WIRE 352 160 320 160
WIRE 512 160 448 160
WIRE 144 192 144 160
WIRE 352 208 288 208
WIRE 288 272 288 208
WIRE 432 272 288 272
WIRE 288 304 288 272
WIRE 432 304 432 272
FLAG 144 256 0
FLAG 0 144 0
FLAG 288 384 0
FLAG 512 160 Vout
FLAG 224 176 0
FLAG 352 240 0
FLAG 144 160 Vcap
FLAG 320 160 Vs
FLAG 432 384 0
FLAG 288 272 Vr
SYMBOL voltage 0 48 R0
WINDOW 123 0 0 Left 0
WINDOW 39 0 0 Left 0
SYMATTR InstName V1
SYMATTR Value 5
SYMBOL cap 128 192 R0
SYMATTR InstName C1
SYMATTR Value 1µ
SYMBOL res 128 48 R0
SYMATTR InstName R1
SYMATTR Value 200k
SYMBOL Digital\\inv 224 96 R0
WINDOW 3 0 0 Invisible 0
SYMATTR InstName A1
SYMATTR Value Vhigh=5
SYMBOL Digital\\srflop 400 112 R0
WINDOW 3 -40 28 Left 2
SYMATTR InstName A2
SYMATTR Value Vhigh=5
SYMBOL res 272 288 R0
SYMATTR InstName R2
SYMATTR Value 10k
SYMBOL voltage 432 288 R0
WINDOW 123 0 0 Left 0
WINDOW 39 0 0 Left 0
SYMATTR InstName V2
SYMATTR Value PWL(0 0 250m 0 251m 3.3 300m 3.3 301m 0)
TEXT 384 16 Left 2 !.tran 500m
TEXT 256 -48 Left 2 !.ic V(Vcap)=0
TEXT 464 -56 Left 2 !.ic V(Vout)=0
